RF_Spanish_representative_feeders/OpenDSS/RF2.dss
clear
new circuit.Feeder_111_Ntw_td009471
edit Vsource.Source bus1=50 basekv=0.42 pu=1 phases=3 ISC3=9000  ISC1=5000
! edit Vsource.Source bus1=source basekv=22 pu=1.0001 phases=3 ISC3=9000  ISC1=5000 ! only uncomment if you want to include the transfomer
!-- Linecodes ------------------------------------------------------------------------------------------------------
redirect linecode.txt
!-- Loadshapes ------------------------------------------------------------------------------------------------------
redirect Loadshapes.txt
! -TRFRMS-----------------------------------------------------------------------------------------------------------------
! The transformer is commented out for an LV feeder analysis. You can uncomment but uncomment the Vsource line above
! New line.mv Bus1=sourcebus.1.2.3 Bus2=20.1.2.3 phases=3 Linecode=101 Length=5 Units=m
! New Transformer.td009471 windings=2 Buses=[20 50.1.2.3.4] Conns=[DELTA WYE] kVs=[22.0 0.42] kVAs=[630.0 630.0] XHL=4.0 phases=3 sub=y 
New Reactor.Yngrnd phases=1 bus1=50.4 bus2=50.0 R=0.0 X=1E-10
! -LINES-----------------------------------------------------------------------------------------------------------------
New Line.1597_12 Bus1=1597_12.1.2.3.4 Bus2=1597_13.1.2.3.4 phases=4 linecode=304 Length=0.11 Units=m
New Line.1600_5 Bus1=1600_5.1.2.3.4 Bus2=1600_6.1.2.3.4 phases=4 linecode=307 Length=0.354 Units=m
New Line.1598 Bus1=1613.1.2.3.4 Bus2=1598.1.2.3.4 phases=4 linecode=219 Length=18.686 Units=m
New Line.1593_1 Bus1=1593_1.1.2.3.4 Bus2=1593_2.1.2.3.4 phases=4 linecode=215 Length=5.852 Units=m
New Line.1601_0 Bus1=1595.1.2.3.4 Bus2=1601_1.1.2.3.4 phases=4 linecode=201 Length=1.74 Units=m
New Line.1600_7 Bus1=1600_7.1.2.3.4 Bus2=1600_8.1.2.3.4 phases=4 linecode=307 Length=1.1 Units=m
New Line.1611_9 Bus1=1611_9.1.2.3.4 Bus2=1611_10.1.2.3.4 phases=4 linecode=215 Length=0.108 Units=m
New Line.1609 Bus1=1609_2.1.2.3.4 Bus2=1609.1.2.3.4 phases=4 linecode=201 Length=3.054 Units=m
New Line.1594 Bus1=1594_4.1.2.3.4 Bus2=1594.1.2.3.4 phases=4 linecode=304 Length=37.781 Units=m
New Line.1611_11 Bus1=1611_11.1.2.3.4 Bus2=1611_12.1.2.3.4 phases=4 linecode=215 Length=0.081 Units=m
New Line.1597_0 Bus1=1594.1.2.3.4 Bus2=1597_1.1.2.3.4 phases=4 linecode=304 Length=13.062 Units=m
New Line.1605 Bus1=1605_3.1.2.3.4 Bus2=1605.1.2.3.4 phases=4 linecode=201 Length=3.627 Units=m
New Line.1611_5 Bus1=1611_5.1.2.3.4 Bus2=1611_6.1.2.3.4 phases=4 linecode=215 Length=0.082 Units=m
New Line.1608 Bus1=1598.1.2.3.4 Bus2=1608.1.2.3.4 phases=4 linecode=222 Length=3.321 Units=m
New Line.1603_2 Bus1=1603_2.1.2.3.4 Bus2=1603_3.1.2.3.4 phases=4 linecode=201 Length=1.449 Units=m
New Line.1597_1 Bus1=1597_1.1.2.3.4 Bus2=1597_2.1.2.3.4 phases=4 linecode=304 Length=7.036 Units=m
New Line.1606_2 Bus1=1606_2.1.2.3.4 Bus2=1606_3.1.2.3.4 phases=4 linecode=201 Length=2.037 Units=m
New Line.1600_4 Bus1=1600_4.1.2.3.4 Bus2=1600_5.1.2.3.4 phases=4 linecode=307 Length=0.355 Units=m
New Line.1597_7 Bus1=1597_7.1.2.3.4 Bus2=1597_8.1.2.3.4 phases=4 linecode=304 Length=0.22 Units=m
New Line.1610_0 Bus1=1598.1.2.3.4 Bus2=1610_1.1.2.3.4 phases=4 linecode=201 Length=2.016 Units=m
New Line.1600_0 Bus1=1594.1.2.3.4 Bus2=1600_1.1.2.3.4 phases=4 linecode=307 Length=0.458 Units=m
New Line.1611_4 Bus1=1611_4.1.2.3.4 Bus2=1611_5.1.2.3.4 phases=4 linecode=215 Length=0.064 Units=m
New Line.1599_4 Bus1=1599_4.1.2.3.4 Bus2=1599_5.1.2.3.4 phases=4 linecode=307 Length=0.12 Units=m
New Line.1599_3 Bus1=1599_3.1.2.3.4 Bus2=1599_4.1.2.3.4 phases=4 linecode=307 Length=0.222 Units=m
New Line.1603 Bus1=1603_4.1.2.3.4 Bus2=1603.1.2.3.4 phases=4 linecode=201 Length=0.395 Units=m
New Line.1595 Bus1=1594.1.2.3.4 Bus2=1595.1.2.3.4 phases=4 linecode=309 Length=5.555 Units=m
New Line.1599_9 Bus1=1599_9.1.2.3.4 Bus2=1599_10.1.2.3.4 phases=4 linecode=307 Length=0.215 Units=m
New Line.1611_10 Bus1=1611_10.1.2.3.4 Bus2=1611_11.1.2.3.4 phases=4 linecode=215 Length=0.112 Units=m
New Line.1603_1 Bus1=1603_1.1.2.3.4 Bus2=1603_2.1.2.3.4 phases=4 linecode=201 Length=0.621 Units=m
New Line.1607_0 Bus1=1599.1.2.3.4 Bus2=1607_1.1.2.3.4 phases=4 linecode=201 Length=2.354 Units=m
New Line.1611_8 Bus1=1611_8.1.2.3.4 Bus2=1611_9.1.2.3.4 phases=4 linecode=215 Length=0.092 Units=m
New Line.1597_4 Bus1=1597_4.1.2.3.4 Bus2=1597_5.1.2.3.4 phases=4 linecode=304 Length=0.301 Units=m
New Line.1600 Bus1=1600_11.1.2.3.4 Bus2=1600.1.2.3.4 phases=4 linecode=307 Length=0.314 Units=m
New Line.1597_9 Bus1=1597_9.1.2.3.4 Bus2=1597_10.1.2.3.4 phases=4 linecode=304 Length=0.297 Units=m
New Line.1602_0 Bus1=1596.1.2.3.4 Bus2=1602_1.1.2.3.4 phases=4 linecode=222 Length=0.412 Units=m
New Line.1611_1 Bus1=1611_1.1.2.3.4 Bus2=1611_2.1.2.3.4 phases=4 linecode=215 Length=1.499 Units=m
New Line.1593 Bus1=1593_2.1.2.3.4 Bus2=1593.1.2.3.4 phases=4 linecode=215 Length=4.975 Units=m
New Line.1600_1 Bus1=1600_1.1.2.3.4 Bus2=1600_2.1.2.3.4 phases=4 linecode=307 Length=0.144 Units=m
New Line.1607 Bus1=1607_4.1.2.3.4 Bus2=1607.1.2.3.4 phases=4 linecode=201 Length=0.464 Units=m
New Line.1600_9 Bus1=1600_9.1.2.3.4 Bus2=1600_10.1.2.3.4 phases=4 linecode=307 Length=1.565 Units=m
New Line.1604_2 Bus1=1604_2.1.2.3.4 Bus2=1604_3.1.2.3.4 phases=4 linecode=201 Length=1.413 Units=m
New Line.1599_11 Bus1=1599_11.1.2.3.4 Bus2=1599_12.1.2.3.4 phases=4 linecode=307 Length=0.818 Units=m
New Line.1606_0 Bus1=1599.1.2.3.4 Bus2=1606_1.1.2.3.4 phases=4 linecode=201 Length=2.371 Units=m
New Line.1605_2 Bus1=1605_2.1.2.3.4 Bus2=1605_3.1.2.3.4 phases=4 linecode=201 Length=1.964 Units=m
New Line.1603_0 Bus1=1596.1.2.3.4 Bus2=1603_1.1.2.3.4 phases=4 linecode=201 Length=1.945 Units=m
New Line.1609_1 Bus1=1609_1.1.2.3.4 Bus2=1609_2.1.2.3.4 phases=4 linecode=201 Length=0.761 Units=m
New Line.1594_3 Bus1=1594_3.1.2.3.4 Bus2=1594_4.1.2.3.4 phases=4 linecode=304 Length=1.429 Units=m
New Line.1594_0 Bus1=2734.1.2.3.4 Bus2=1594_1.1.2.3.4 phases=4 linecode=304 Length=0.495 Units=m
New Line.1612_0 Bus1=1593.1.2.3.4 Bus2=1612_1.1.2.3.4 phases=4 linecode=215 Length=14.206 Units=m
New Line.1606_1 Bus1=1606_1.1.2.3.4 Bus2=1606_2.1.2.3.4 phases=4 linecode=201 Length=0.75 Units=m
New Line.1611_2 Bus1=1611_2.1.2.3.4 Bus2=1611_3.1.2.3.4 phases=4 linecode=215 Length=0.058 Units=m
New Line.1611_3 Bus1=1611_3.1.2.3.4 Bus2=1611_4.1.2.3.4 phases=4 linecode=215 Length=0.071 Units=m
New Line.1599_12 Bus1=1599_12.1.2.3.4 Bus2=1599_13.1.2.3.4 phases=4 linecode=307 Length=0.354 Units=m
New Line.1599_6 Bus1=1599_6.1.2.3.4 Bus2=1599_7.1.2.3.4 phases=4 linecode=307 Length=0.273 Units=m
New Line.1601_1 Bus1=1601_1.1.2.3.4 Bus2=1601_2.1.2.3.4 phases=4 linecode=201 Length=1.087 Units=m
New Line.1601 Bus1=1601_4.1.2.3.4 Bus2=1601.1.2.3.4 phases=4 linecode=201 Length=0.221 Units=m
New Line.feeder111 Bus1=50.1.2.3.4 Bus2=50_3.1.2.3.4 phases=4 linecode=205 Length=1.712 Units=m
New Line.1611 Bus1=1611_13.1.2.3.4 Bus2=1611.1.2.3.4 phases=4 linecode=215 Length=0.863 Units=m
New Line.1604_1 Bus1=1604_1.1.2.3.4 Bus2=1604_2.1.2.3.4 phases=4 linecode=201 Length=0.591 Units=m
New Line.1594_1 Bus1=1594_1.1.2.3.4 Bus2=1594_2.1.2.3.4 phases=4 linecode=304 Length=0.275 Units=m
New Line.1599_0 Bus1=1594.1.2.3.4 Bus2=1599_1.1.2.3.4 phases=4 linecode=307 Length=0.211 Units=m
New Line.1599_8 Bus1=1599_8.1.2.3.4 Bus2=1599_9.1.2.3.4 phases=4 linecode=307 Length=0.241 Units=m
New Line.1599_5 Bus1=1599_5.1.2.3.4 Bus2=1599_6.1.2.3.4 phases=4 linecode=307 Length=0.253 Units=m
New Line.1613 Bus1=1613_1.1.2.3.4 Bus2=1613.1.2.3.4 phases=4 linecode=304 Length=1.081 Units=m
New Line.1611_12 Bus1=1611_12.1.2.3.4 Bus2=1611_13.1.2.3.4 phases=4 linecode=215 Length=0.045 Units=m
New Line.1612 Bus1=1612_1.1.2.3.4 Bus2=1612.1.2.3.4 phases=4 linecode=215 Length=38.572 Units=m
New Line.1601_3 Bus1=1601_3.1.2.3.4 Bus2=1601_4.1.2.3.4 phases=4 linecode=201 Length=1.429 Units=m
New Line.1609_0 Bus1=1608.1.2.3.4 Bus2=1609_1.1.2.3.4 phases=4 linecode=201 Length=1.847 Units=m
New Line.1602 Bus1=1602_2.1.2.3.4 Bus2=1602.1.2.3.4 phases=4 linecode=222 Length=5.969 Units=m
New Line.1611_0 Bus1=1612.1.2.3.4 Bus2=1611_1.1.2.3.4 phases=4 linecode=215 Length=11.667 Units=m
New Line.1600_6 Bus1=1600_6.1.2.3.4 Bus2=1600_7.1.2.3.4 phases=4 linecode=307 Length=0.431 Units=m
New Line.1603_3 Bus1=1603_3.1.2.3.4 Bus2=1603_4.1.2.3.4 phases=4 linecode=201 Length=1.046 Units=m
New Line.1604_0 Bus1=1602.1.2.3.4 Bus2=1604_1.1.2.3.4 phases=4 linecode=201 Length=1.973 Units=m
New Line.1604 Bus1=1604_4.1.2.3.4 Bus2=1604.1.2.3.4 phases=4 linecode=201 Length=0.321 Units=m
New Line.1600_3 Bus1=1600_3.1.2.3.4 Bus2=1600_4.1.2.3.4 phases=4 linecode=307 Length=0.19 Units=m
New Line.1597_14 Bus1=1597_14.1.2.3.4 Bus2=1597_15.1.2.3.4 phases=4 linecode=304 Length=0.134 Units=m
New Line.1605_0 Bus1=1602.1.2.3.4 Bus2=1605_1.1.2.3.4 phases=4 linecode=201 Length=2.03 Units=m
New Line.1607_2 Bus1=1607_2.1.2.3.4 Bus2=1607_3.1.2.3.4 phases=4 linecode=201 Length=2.526 Units=m
New Line.1607_1 Bus1=1607_1.1.2.3.4 Bus2=1607_2.1.2.3.4 phases=4 linecode=201 Length=0.707 Units=m
New Line.1597_13 Bus1=1597_13.1.2.3.4 Bus2=1597_14.1.2.3.4 phases=4 linecode=304 Length=0.26 Units=m
New Line.1599_13 Bus1=1599_13.1.2.3.4 Bus2=1599_14.1.2.3.4 phases=4 linecode=307 Length=0.671 Units=m
New Line.1597_10 Bus1=1597_10.1.2.3.4 Bus2=1597_11.1.2.3.4 phases=4 linecode=304 Length=0.19 Units=m
New Line.1597_2 Bus1=1597_2.1.2.3.4 Bus2=1597_3.1.2.3.4 phases=4 linecode=304 Length=0.234 Units=m
New Line.cktbk111 Bus1=50_3.1.2.3.4 Bus2=2734.1.2.3.4 phases=4 linecode=102 Length=0.5 Units=m
New Line.1599_2 Bus1=1599_2.1.2.3.4 Bus2=1599_3.1.2.3.4 phases=4 linecode=307 Length=0.234 Units=m
New Line.1600_8 Bus1=1600_8.1.2.3.4 Bus2=1600_9.1.2.3.4 phases=4 linecode=307 Length=1.491 Units=m
New Line.1602_1 Bus1=1602_1.1.2.3.4 Bus2=1602_2.1.2.3.4 phases=4 linecode=222 Length=0.891 Units=m
New Line.1605_1 Bus1=1605_1.1.2.3.4 Bus2=1605_2.1.2.3.4 phases=4 linecode=201 Length=0.611 Units=m
New Line.1610 Bus1=1610_1.1.2.3.4 Bus2=1610.1.2.3.4 phases=4 linecode=201 Length=1.02 Units=m
New Line.1597_5 Bus1=1597_5.1.2.3.4 Bus2=1597_6.1.2.3.4 phases=4 linecode=304 Length=0.28 Units=m
New Line.1597_6 Bus1=1597_6.1.2.3.4 Bus2=1597_7.1.2.3.4 phases=4 linecode=304 Length=0.272 Units=m
New Line.1600_10 Bus1=1600_10.1.2.3.4 Bus2=1600_11.1.2.3.4 phases=4 linecode=307 Length=0.808 Units=m
New Line.1599_1 Bus1=1599_1.1.2.3.4 Bus2=1599_2.1.2.3.4 phases=4 linecode=307 Length=0.22 Units=m
New Line.1593_0 Bus1=1613.1.2.3.4 Bus2=1593_1.1.2.3.4 phases=4 linecode=215 Length=10.983 Units=m
New Line.1611_6 Bus1=1611_6.1.2.3.4 Bus2=1611_7.1.2.3.4 phases=4 linecode=215 Length=0.1 Units=m
New Line.1607_3 Bus1=1607_3.1.2.3.4 Bus2=1607_4.1.2.3.4 phases=4 linecode=201 Length=1.927 Units=m
New Line.1599_10 Bus1=1599_10.1.2.3.4 Bus2=1599_11.1.2.3.4 phases=4 linecode=307 Length=6.049 Units=m
New Line.1600_2 Bus1=1600_2.1.2.3.4 Bus2=1600_3.1.2.3.4 phases=4 linecode=307 Length=0.31 Units=m
New Line.1606 Bus1=1606_3.1.2.3.4 Bus2=1606.1.2.3.4 phases=4 linecode=201 Length=4.031 Units=m
New Line.1597 Bus1=1597_15.1.2.3.4 Bus2=1597.1.2.3.4 phases=4 linecode=304 Length=0.404 Units=m
New Line.1601_2 Bus1=1601_2.1.2.3.4 Bus2=1601_3.1.2.3.4 phases=4 linecode=201 Length=1.157 Units=m
New Line.1599_14 Bus1=1599_14.1.2.3.4 Bus2=1599_15.1.2.3.4 phases=4 linecode=307 Length=0.852 Units=m
New Line.1596 Bus1=1595.1.2.3.4 Bus2=1596.1.2.3.4 phases=4 linecode=216 Length=5.717 Units=m
New Line.1599 Bus1=1599_15.1.2.3.4 Bus2=1599.1.2.3.4 phases=4 linecode=307 Length=0.658 Units=m
New Line.1604_3 Bus1=1604_3.1.2.3.4 Bus2=1604_4.1.2.3.4 phases=4 linecode=201 Length=1.722 Units=m
New Line.1613_0 Bus1=1597.1.2.3.4 Bus2=1613_1.1.2.3.4 phases=4 linecode=304 Length=5.765 Units=m
New Line.1597_8 Bus1=1597_8.1.2.3.4 Bus2=1597_9.1.2.3.4 phases=4 linecode=304 Length=0.248 Units=m
New Line.1611_7 Bus1=1611_7.1.2.3.4 Bus2=1611_8.1.2.3.4 phases=4 linecode=215 Length=0.117 Units=m
New Line.1594_2 Bus1=1594_2.1.2.3.4 Bus2=1594_3.1.2.3.4 phases=4 linecode=304 Length=9.937 Units=m
New Line.1597_11 Bus1=1597_11.1.2.3.4 Bus2=1597_12.1.2.3.4 phases=4 linecode=304 Length=0.291 Units=m
New Line.1597_3 Bus1=1597_3.1.2.3.4 Bus2=1597_4.1.2.3.4 phases=4 linecode=304 Length=0.179 Units=m
New Line.1599_7 Bus1=1599_7.1.2.3.4 Bus2=1599_8.1.2.3.4 phases=4 linecode=307 Length=0.294 Units=m
! --LOADS-----------------------------------------------------------------------------------------------------------
New load.load6154 Phases=1 Bus1=1596.3.4 kV=0.23 kW=1.0 PF=0.95 daily=shape_6154
New load.load6272 Phases=1 Bus1=1595.1.4 kV=0.23 kW=1.0 PF=0.95 daily=shape_6272
New load.load6179 Phases=1 Bus1=1606.1.4 kV=0.23 kW=1.0 PF=0.95 daily=shape_6179
New load.load6059 Phases=1 Bus1=1608.2.4 kV=0.23 kW=1.0 PF=0.95 daily=shape_6059
New load.load6053 Phases=1 Bus1=1600.2.4 kV=0.23 kW=1.0 PF=0.95 daily=shape_6053
New load.load6155 Phases=1 Bus1=1598.1.4 kV=0.23 kW=1.0 PF=0.95 daily=shape_6155
New load.load6158 Phases=1 Bus1=1602.1.4 kV=0.23 kW=1.0 PF=0.95 daily=shape_6158
New load.load6060 Phases=1 Bus1=1605.2.4 kV=0.23 kW=1.0 PF=0.95 daily=shape_6060
! --PF -----------------------------------------------------------------------------------------------------------
    set mode=Daily number=481 stepsize=60m
    Calcvoltagebases
    solve
    Plot circuit Power Max=1000 dots=n labels=n subs=y C1=black 1ph=3
    
